***** HSPICE -- H-2013.03-SP1 32-BIT (May 29 2013) RHEL32 ******
 Input File: exa_rca_test.cir
 lic:
 lic: FLEXlm: v10.9.8
 lic: USER:   pedro                HOSTNAME: sagittarius-a
 lic: HOSTID: 00039988e3a4         PID:      4725
 lic: Using FLEXlm license file:
 lic: 27020@localhost
 lic: Checkout 1 hspice
 lic: License/Maintenance for hspice will expire on 30-jun-2022/2020.03
 lic: 1(in_use)/50(total) FLOATING license(s) on SERVER 27020@localhost
 lic:
 init: begin read circuit files,  cpu clock=  2.20E-01
       option search = /usr/synopsys/hspice_H-2013.03-SP1/hspice/parts/
                         ad
       option search = /usr/synopsys/hspice_H-2013.03-SP1/hspice/parts/
                         ad
       option search = /usr/synopsys/hspice_H-2013.03-SP1/hspice/parts/
                         behave
       option search = /usr/synopsys/hspice_H-2013.03-SP1/hspice/parts/
                         bjt
       option search = /usr/synopsys/hspice_H-2013.03-SP1/hspice/parts/
                         burr_brn
       option search = /usr/synopsys/hspice_H-2013.03-SP1/hspice/parts/
                         comlinear
       option search = /usr/synopsys/hspice_H-2013.03-SP1/hspice/parts/
                         dio
       option search = /usr/synopsys/hspice_H-2013.03-SP1/hspice/parts/
                         fet
       option search = /usr/synopsys/hspice_H-2013.03-SP1/hspice/parts/
                         lin_tech
       option search = /usr/synopsys/hspice_H-2013.03-SP1/hspice/parts/
                         pci
       option search = /usr/synopsys/hspice_H-2013.03-SP1/hspice/parts/
                         signet
       option search = /usr/synopsys/hspice_H-2013.03-SP1/hspice/parts/
                         ti
       option search = /usr/synopsys/hspice_H-2013.03-SP1/hspice/parts/
                         tline
       option search = /usr/synopsys/hspice_H-2013.03-SP1/hspice/parts/
                         xilinx
       option runlvl
       option post =     2.00
       option measform =     3.00
 init: end read circuit files,  cpu clock=  2.26E-01 peak memory=       120 mb
 init: begin check errors,  cpu clock=  2.26E-01
 init: end check errors,  cpu clock=  2.69E-01 peak memory=       121 mb
 init: begin setup matrix, pivot=     0 cpu clock=  2.69E-01
       establish matrix -- done,  cpu clock=  2.70E-01 peak memory=       121 mb
       re-order matrix -- done,  cpu clock=  2.72E-01 peak memory=       121 mb
 init: end setup matrix,  cpu clock=  2.73E-01 peak memory=       121 mb
 dcop: begin dcop,  cpu clock=  2.73E-01
 dcop: end dcop,  cpu clock=  3.11E-01 peak memory=       122 mb  tot_iter=      10
 output: exa_rca_test.mt0
 sweep: tran tran0    begin, stop_t=  5.00E-09 #sweeps=  51 cpu clock=  3.12E-01
 tran: time= 8.8600E-10 tot_iter=       8 conv_iter=       4 cpu clock= 3.17E-01
 tran: time= 1.0000E-09 tot_iter=      10 conv_iter=       5 cpu clock= 3.18E-01
 tran: time= 1.5317E-09 tot_iter=     159 conv_iter=      44 cpu clock= 5.33E-01
 tran: time= 2.1319E-09 tot_iter=     165 conv_iter=      46 cpu clock= 5.38E-01
 tran: time= 2.6319E-09 tot_iter=     168 conv_iter=      47 cpu clock= 5.40E-01
 tran: time= 3.1319E-09 tot_iter=     171 conv_iter=      48 cpu clock= 5.42E-01
 tran: time= 3.6319E-09 tot_iter=     173 conv_iter=      49 cpu clock= 5.44E-01
 tran: time= 4.1319E-09 tot_iter=     175 conv_iter=      50 cpu clock= 5.46E-01
 tran: time= 4.6319E-09 tot_iter=     177 conv_iter=      51 cpu clock= 5.47E-01
 tran: time= 5.0000E-09 tot_iter=     180 conv_iter=      52 cpu clock= 5.49E-01
 sweep: tran tran0    end,  cpu clock=  5.51E-01 peak memory=       122 mb
>info:         ***** hspice job concluded
 lic: Release hspice token(s)
