***** HSPICE -- H-2013.03-SP1 32-BIT (May 29 2013) RHEL32 ******
 Input File: exa_csa_test.cir
 lic:
 lic: FLEXlm: v10.9.8
 lic: USER:   pedro                HOSTNAME: sagittarius-a
 lic: HOSTID: 00039988e3a4         PID:      6864
 lic: Using FLEXlm license file:
 lic: 27020@localhost
 lic: Checkout 1 hspice
 lic: License/Maintenance for hspice will expire on 30-jun-2022/2020.03
 lic: 1(in_use)/50(total) FLOATING license(s) on SERVER 27020@localhost
 lic:
 init: begin read circuit files,  cpu clock=  2.20E-01
       option search = /usr/synopsys/hspice_H-2013.03-SP1/hspice/parts/
                         ad
       option search = /usr/synopsys/hspice_H-2013.03-SP1/hspice/parts/
                         ad
       option search = /usr/synopsys/hspice_H-2013.03-SP1/hspice/parts/
                         behave
       option search = /usr/synopsys/hspice_H-2013.03-SP1/hspice/parts/
                         bjt
       option search = /usr/synopsys/hspice_H-2013.03-SP1/hspice/parts/
                         burr_brn
       option search = /usr/synopsys/hspice_H-2013.03-SP1/hspice/parts/
                         comlinear
       option search = /usr/synopsys/hspice_H-2013.03-SP1/hspice/parts/
                         dio
       option search = /usr/synopsys/hspice_H-2013.03-SP1/hspice/parts/
                         fet
       option search = /usr/synopsys/hspice_H-2013.03-SP1/hspice/parts/
                         lin_tech
       option search = /usr/synopsys/hspice_H-2013.03-SP1/hspice/parts/
                         pci
       option search = /usr/synopsys/hspice_H-2013.03-SP1/hspice/parts/
                         signet
       option search = /usr/synopsys/hspice_H-2013.03-SP1/hspice/parts/
                         ti
       option search = /usr/synopsys/hspice_H-2013.03-SP1/hspice/parts/
                         tline
       option search = /usr/synopsys/hspice_H-2013.03-SP1/hspice/parts/
                         xilinx
       option runlvl
       option post =     2.00
       option measform =     3.00
 init: end read circuit files,  cpu clock=  2.26E-01 peak memory=       120 mb
 init: begin check errors,  cpu clock=  2.26E-01
 init: end check errors,  cpu clock=  2.72E-01 peak memory=       121 mb
 init: begin setup matrix, pivot=     0 cpu clock=  2.72E-01
       establish matrix -- done,  cpu clock=  2.73E-01 peak memory=       122 mb
       re-order matrix -- done,  cpu clock=  2.76E-01 peak memory=       122 mb
 init: end setup matrix,  cpu clock=  2.77E-01 peak memory=       122 mb
 dcop: begin dcop,  cpu clock=  2.78E-01
 dcop: end dcop,  cpu clock=  3.41E-01 peak memory=       122 mb  tot_iter=      14
 output: exa_csa_test.mt0
 sweep: tran tran0    begin, stop_t=  5.00E-09 #sweeps=  51 cpu clock=  3.42E-01
 tran: time= 8.8600E-10 tot_iter=       8 conv_iter=       4 cpu clock= 3.49E-01
 tran: time= 1.0000E-09 tot_iter=      10 conv_iter=       5 cpu clock= 3.49E-01
 tran: time= 1.5090E-09 tot_iter=     169 conv_iter=      41 cpu clock= 5.86E-01
 tran: time= 2.0285E-09 tot_iter=     198 conv_iter=      47 cpu clock= 6.15E-01
 tran: time= 2.7338E-09 tot_iter=     207 conv_iter=      50 cpu clock= 6.27E-01
 tran: time= 3.2338E-09 tot_iter=     210 conv_iter=      51 cpu clock= 6.30E-01
 tran: time= 3.7338E-09 tot_iter=     213 conv_iter=      52 cpu clock= 6.34E-01
 tran: time= 4.2338E-09 tot_iter=     216 conv_iter=      53 cpu clock= 6.37E-01
 tran: time= 4.7338E-09 tot_iter=     219 conv_iter=      54 cpu clock= 6.41E-01
 tran: time= 5.0000E-09 tot_iter=     222 conv_iter=      55 cpu clock= 6.44E-01
 sweep: tran tran0    end,  cpu clock=  6.47E-01 peak memory=       122 mb
>info:         ***** hspice job concluded
 lic: Release hspice token(s)
